media/examples/OpenDSS/IEEE123/ieee123_Power_elem_kVA.txt

CIRCUIT ELEMENT POWER FLOW

(Power Flow into element from indicated Bus)

Power Delivery Elements

  Bus Phase     kW     +j   kvar         kVA         PF

ELEMENT = "Vsource.SOURCE"
150      1        -0.0 +j      0.0        0.0      -0.0000
150      2        -0.0 +j      0.0        0.0      -0.0000
150      3        -0.0 +j      0.0        0.0      -0.0000
   TERMINAL TOTAL    -0.0 +j      0.1        0.1      -0.0000
150      0         0.0 +j      0.0        0.0       1.0000
150      0         0.0 +j      0.0        0.0       1.0000
150      0         0.0 +j      0.0        0.0       1.0000
   TERMINAL TOTAL     0.0 +j      0.0        0.0       1.0000

ELEMENT = "Transformer.REG1A"
150      1         0.0 +j     -0.0        0.0      -0.0000
150      2         0.0 +j     -0.0        0.0      -0.0000
150      3         0.0 +j     -0.0        0.0      -0.0000
150      0         0.0 +j      0.0        0.0       1.0000
   TERMINAL TOTAL     0.0 +j     -0.1        0.1      -0.0000
150R     1        -0.0 +j      0.0        0.0      -0.0000
150R     2        -0.0 +j      0.0        0.0      -0.0000
150R     3        -0.0 +j      0.0        0.0      -0.0000
150R     0         0.0 +j      0.0        0.0       1.0000
   TERMINAL TOTAL    -0.0 +j      0.1        0.1      -0.0000

ELEMENT = "Line.L115"
149      1        -0.0 +j     -0.0        0.0       0.0046
149      2         0.0 +j     -0.0        0.0      -0.0032
149      3         0.0 +j     -0.0        0.0      -0.0020
   TERMINAL TOTAL     0.0 +j     -0.1        0.1      -0.0000
1        1        -0.0 +j      0.0        0.0      -0.0050
1        2         0.0 +j      0.0        0.0       0.0035
1        3         0.0 +j      0.0        0.0       0.0021
   TERMINAL TOTAL    -0.0 +j      0.1        0.1      -0.0000

ELEMENT = "Line.L1"
1        2         0.0 +j     -0.0        0.0      -0.0000
   TERMINAL TOTAL     0.0 +j     -0.0        0.0      -0.0000
2        2        -0.0 +j     -0.0        0.0       0.0000
   TERMINAL TOTAL    -0.0 +j     -0.0        0.0       0.0000

ELEMENT = "Line.L2"
1        3         0.0 +j     -0.0        0.0      -0.0000
   TERMINAL TOTAL     0.0 +j     -0.0        0.0      -0.0000
3        3        -0.0 +j      0.0        0.0      -0.0000
   TERMINAL TOTAL    -0.0 +j      0.0        0.0      -0.0000

ELEMENT = "Line.L3"
1        1        -0.0 +j     -0.0        0.0       0.0035
1        2         0.0 +j     -0.0        0.0      -0.0025
1        3         0.0 +j     -0.0        0.0      -0.0016
   TERMINAL TOTAL     0.0 +j     -0.1        0.1      -0.0000
7        1        -0.0 +j      0.0        0.0      -0.0037
7        2         0.0 +j      0.0        0.0       0.0026
7        3         0.0 +j      0.0        0.0       0.0017
   TERMINAL TOTAL    -0.0 +j      0.1        0.1      -0.0000

ELEMENT = "Line.L4"
3        3         0.0 +j     -0.0        0.0      -0.0000
   TERMINAL TOTAL     0.0 +j     -0.0        0.0      -0.0000
4        3        -0.0 +j     -0.0        0.0       0.0000
   TERMINAL TOTAL    -0.0 +j     -0.0        0.0       0.0000

ELEMENT = "Line.L5"
3        3         0.0 +j     -0.0        0.0      -0.0000
   TERMINAL TOTAL     0.0 +j     -0.0        0.0      -0.0000
5        3        -0.0 +j     -0.0        0.0       0.0001
   TERMINAL TOTAL    -0.0 +j     -0.0        0.0       0.0001

ELEMENT = "Line.L6"
5        3         0.0 +j     -0.0        0.0      -0.0000
   TERMINAL TOTAL     0.0 +j     -0.0        0.0      -0.0000
6        3        -0.0 +j     -0.0        0.0       0.0000
   TERMINAL TOTAL    -0.0 +j     -0.0        0.0       0.0000

ELEMENT = "Line.L7"
7        1        -0.0 +j     -0.0        0.0       0.0024
7        2         0.0 +j     -0.0        0.0      -0.0017
7        3         0.0 +j     -0.0        0.0      -0.0011
   TERMINAL TOTAL     0.0 +j     -0.1        0.1      -0.0000
8        1        -0.0 +j      0.0        0.0      -0.0025
8        2         0.0 +j      0.0        0.0       0.0018
8        3         0.0 +j      0.0        0.0       0.0011
   TERMINAL TOTAL    -0.0 +j      0.1        0.1      -0.0000

ELEMENT = "Line.L8"
8        2         0.0 +j     -0.0        0.0      -0.0000
   TERMINAL TOTAL     0.0 +j     -0.0        0.0      -0.0000
12       2        -0.0 +j     -0.0        0.0       0.0000
   TERMINAL TOTAL    -0.0 +j     -0.0        0.0       0.0000

ELEMENT = "Line.L9"
8        1         0.0 +j     -0.0        0.0      -0.0000
   TERMINAL TOTAL     0.0 +j     -0.0        0.0      -0.0000
9        1        -0.0 +j      0.0        0.0      -0.0000
   TERMINAL TOTAL    -0.0 +j      0.0        0.0      -0.0000

ELEMENT = "Line.L10"
8        1        -0.0 +j     -0.0        0.0       0.0038
8        2         0.0 +j     -0.0        0.0      -0.0026
8        3         0.0 +j     -0.0        0.0      -0.0016
   TERMINAL TOTAL     0.0 +j     -0.1        0.1      -0.0000
13       1        -0.0 +j      0.0        0.0      -0.0040
13       2         0.0 +j      0.0        0.0       0.0028
13       3         0.0 +j      0.0        0.0       0.0017
   TERMINAL TOTAL    -0.0 +j      0.1        0.1      -0.0000

ELEMENT = "Line.L11"
9R       1         0.0 +j     -0.0        0.0      -0.0000
   TERMINAL TOTAL     0.0 +j     -0.0        0.0      -0.0000
14       1        -0.0 +j      0.0        0.0      -0.0000
   TERMINAL TOTAL    -0.0 +j      0.0        0.0      -0.0000

ELEMENT = "Line.L12"
13       3         0.0 +j     -0.0        0.0      -0.0000
   TERMINAL TOTAL     0.0 +j     -0.0        0.0      -0.0000
34       3        -0.0 +j      0.0        0.0      -0.0000
   TERMINAL TOTAL    -0.0 +j      0.0        0.0      -0.0000

ELEMENT = "Line.L13"
13       1         0.0 +j     -0.0        0.0      -0.0152
13       2         0.0 +j     -0.0        0.0      -0.0128
13       3        -0.0 +j     -0.0        0.0       0.0286
   TERMINAL TOTAL     0.0 +j     -0.0        0.0      -0.0000
18       1         0.0 +j      0.0        0.0       0.0249
18       2         0.0 +j      0.0        0.0       0.0213
18       3        -0.0 +j      0.0        0.0      -0.0479
   TERMINAL TOTAL    -0.0 +j      0.0        0.0      -0.0000

ELEMENT = "Line.L14"
14       1         0.0 +j     -0.0        0.0      -0.0000
   TERMINAL TOTAL     0.0 +j     -0.0        0.0      -0.0000
11       1        -0.0 +j     -0.0        0.0       0.0000
   TERMINAL TOTAL    -0.0 +j     -0.0        0.0       0.0000

ELEMENT = "Line.L15"
14       1         0.0 +j     -0.0        0.0      -0.0000
   TERMINAL TOTAL     0.0 +j     -0.0        0.0      -0.0000
10       1        -0.0 +j     -0.0        0.0       0.0000
   TERMINAL TOTAL    -0.0 +j     -0.0        0.0       0.0000

ELEMENT = "Line.L16"
15       3         0.0 +j     -0.0        0.0      -0.0000
   TERMINAL TOTAL     0.0 +j     -0.0        0.0      -0.0000
16       3        -0.0 +j     -0.0        0.0       0.0000
   TERMINAL TOTAL    -0.0 +j     -0.0        0.0       0.0000

ELEMENT = "Line.L17"
15       3         0.0 +j     -0.0        0.0      -0.0000
   TERMINAL TOTAL     0.0 +j     -0.0        0.0      -0.0000
17       3        -0.0 +j     -0.0        0.0       0.0000
   TERMINAL TOTAL    -0.0 +j     -0.0        0.0       0.0000

ELEMENT = "Line.L18"
18       1         0.0 +j     -0.0        0.0      -0.0000
   TERMINAL TOTAL     0.0 +j     -0.0        0.0      -0.0000
19       1        -0.0 +j      0.0        0.0      -0.0001
   TERMINAL TOTAL    -0.0 +j      0.0        0.0      -0.0001

ELEMENT = "Line.L19"
18       1         0.0 +j     -0.0        0.0      -0.0150
18       2         0.0 +j     -0.0        0.0      -0.0142
18       3        -0.0 +j     -0.0        0.0       0.0224
   TERMINAL TOTAL     0.0 +j     -0.0        0.0      -0.0000
21       1         0.0 +j      0.0        0.0       0.0245
21       2         0.0 +j      0.0        0.0       0.0255
21       3        -0.0 +j      0.0        0.0      -0.0327
   TERMINAL TOTAL    -0.0 +j      0.0        0.0      -0.0000

ELEMENT = "Line.L20"
19       1         0.0 +j     -0.0        0.0      -0.0000
   TERMINAL TOTAL     0.0 +j     -0.0        0.0      -0.0000
20       1        -0.0 +j     -0.0        0.0       0.0000
   TERMINAL TOTAL    -0.0 +j     -0.0        0.0       0.0000

ELEMENT = "Line.L21"
21       2         0.0 +j     -0.0        0.0      -0.0000
   TERMINAL TOTAL     0.0 +j     -0.0        0.0      -0.0000
22       2        -0.0 +j     -0.0        0.0       0.0000
   TERMINAL TOTAL    -0.0 +j     -0.0        0.0       0.0000

ELEMENT = "Line.L22"
21       1         0.0 +j     -0.0        0.0      -0.0140
21       2         0.0 +j     -0.0        0.0      -0.0156
21       3        -0.0 +j     -0.0        0.0       0.0206
   TERMINAL TOTAL     0.0 +j     -0.0        0.0      -0.0000
23       1         0.0 +j      0.0        0.0       0.0220
23       2         0.0 +j      0.0        0.0       0.0306
23       3        -0.0 +j      0.0        0.0      -0.0290
   TERMINAL TOTAL    -0.0 +j      0.0        0.0      -0.0000

ELEMENT = "Line.L23"
23       3         0.0 +j     -0.0        0.0      -0.0000
   TERMINAL TOTAL     0.0 +j     -0.0        0.0      -0.0000
24       3        -0.0 +j     -0.0        0.0       0.0000
   TERMINAL TOTAL    -0.0 +j     -0.0        0.0       0.0000

ELEMENT = "Line.L24"
23       1         0.0 +j     -0.0        0.0      -0.0166
23       2         0.0 +j     -0.0        0.0      -0.0194
23       3        -0.0 +j     -0.0        0.0       0.0261
   TERMINAL TOTAL     0.0 +j     -0.0        0.0      -0.0000
25       1         0.0 +j      0.0        0.0       0.0290
25       2         0.0 +j      0.0        0.0       0.0493
25       3        -0.0 +j      0.0        0.0      -0.0414
   TERMINAL TOTAL    -0.0 +j      0.0        0.0      -0.0000

ELEMENT = "Line.L25"
25R      1         0.0 +j     -0.0        0.0      -0.0760
25R      3        -0.0 +j     -0.0        0.0       0.0626
   TERMINAL TOTAL     0.0 +j     -0.0        0.0      -0.0000
26       1         0.0 +j      0.0        0.0       0.7966
26       3        -0.0 +j      0.0        0.0      -0.2767
   TERMINAL TOTAL    -0.0 +j      0.0        0.0      -0.0000

ELEMENT = "Line.L26"
25       1         0.0 +j     -0.0        0.0      -0.0251
25       2         0.0 +j     -0.0        0.0      -0.0185
25       3        -0.0 +j     -0.0        0.0       0.0437
   TERMINAL TOTAL     0.0 +j     -0.0        0.0      -0.0000
28       1         0.0 +j      0.0        0.0       0.0717
28       2         0.0 +j      0.0        0.0       0.0439
28       3        -0.0 +j      0.0        0.0      -0.1137
   TERMINAL TOTAL    -0.0 +j      0.0        0.0      -0.0000

ELEMENT = "Line.L27"
26       1         0.0 +j     -0.0        0.0      -0.0868
26       3        -0.0 +j     -0.0        0.0       0.1240
   TERMINAL TOTAL     0.0 +j     -0.0        0.0      -0.0000
27       1         0.0 +j     -0.0        0.0      -0.7505
27       3        -0.0 +j     -0.0        0.0       0.2182
   TERMINAL TOTAL    -0.0 +j     -0.0        0.0       0.0000

ELEMENT = "Line.L28"
26       3         0.0 +j     -0.0        0.0      -0.0000
   TERMINAL TOTAL     0.0 +j     -0.0        0.0      -0.0000
31       3        -0.0 +j      0.0        0.0      -0.0000
   TERMINAL TOTAL    -0.0 +j      0.0        0.0      -0.0000

ELEMENT = "Line.L29"
27       1         0.0 +j     -0.0        0.0      -0.0000
   TERMINAL TOTAL     0.0 +j     -0.0        0.0      -0.0000
33       1        -0.0 +j     -0.0        0.0       0.0000
   TERMINAL TOTAL    -0.0 +j     -0.0        0.0       0.0000

ELEMENT = "Line.L30"
28       1         0.0 +j     -0.0        0.0      -0.0388
28       2         0.0 +j     -0.0        0.0      -0.0294
28       3        -0.0 +j     -0.0        0.0       0.0683
   TERMINAL TOTAL     0.0 +j     -0.0        0.0      -0.0000
29       1         0.0 +j     -0.0        0.0      -0.9889
29       2         0.0 +j      0.0        0.0       0.3549
29       3        -0.0 +j      0.0        0.0      -0.9089
   TERMINAL TOTAL    -0.0 +j      0.0        0.0      -0.0000

ELEMENT = "Line.L31"
29       1         0.0 +j     -0.0        0.0      -0.0512
29       2         0.0 +j     -0.0        0.0      -0.0398
29       3        -0.0 +j     -0.0        0.0       0.0910
   TERMINAL TOTAL     0.0 +j     -0.0        0.0      -0.0000
30       1         0.0 +j     -0.0        0.0      -0.1553
30       2         0.0 +j     -0.0        0.0      -0.1578
30       3        -0.0 +j     -0.0        0.0       0.2984
   TERMINAL TOTAL    -0.0 +j     -0.0        0.0       0.0000

ELEMENT = "Line.L32"
30       1         0.0 +j     -0.0        0.0      -0.0595
30       2         0.0 +j     -0.0        0.0      -0.0472
30       3        -0.0 +j     -0.0        0.0       0.1066
   TERMINAL TOTAL    -0.0 +j     -0.0        0.0       0.0000
250      1         0.0 +j     -0.0        0.0      -0.1092
250      2         0.0 +j     -0.0        0.0      -0.0978
250      3        -0.0 +j     -0.0        0.0       0.2035
   TERMINAL TOTAL    -0.0 +j     -0.0        0.0       0.0000

ELEMENT = "Line.L33"
31       3         0.0 +j     -0.0        0.0      -0.0000
   TERMINAL TOTAL     0.0 +j     -0.0        0.0      -0.0000
32       3        -0.0 +j     -0.0        0.0       0.0000
   TERMINAL TOTAL    -0.0 +j     -0.0        0.0       0.0000

ELEMENT = "Line.L34"
34       3         0.0 +j     -0.0        0.0      -0.0000
   TERMINAL TOTAL     0.0 +j     -0.0        0.0      -0.0000
15       3        -0.0 +j      0.0        0.0      -0.0000
   TERMINAL TOTAL    -0.0 +j      0.0        0.0      -0.0000

ELEMENT = "Line.L35"
35       1        -0.0 +j     -0.0        0.0       0.1180
35       2         0.0 +j     -0.0        0.0      -0.0998
   TERMINAL TOTAL     0.0 +j     -0.0        0.0      -0.0000
36       1        -0.0 +j     -0.0        0.0       0.2462
36       2         0.0 +j     -0.0        0.0      -0.3711
   TERMINAL TOTAL    -0.0 +j     -0.0        0.0       0.0000

ELEMENT = "Line.L36"
35       1        -0.0 +j     -0.0        0.0       0.0222
35       2         0.0 +j     -0.0        0.0      -0.0140
35       3         0.0 +j     -0.0        0.0      -0.0101
   TERMINAL TOTAL     0.0 +j     -0.0        0.0      -0.0000
40       1        -0.0 +j      0.0        0.0      -0.0324
40       2         0.0 +j      0.0        0.0       0.0220
40       3         0.0 +j      0.0        0.0       0.0147
   TERMINAL TOTAL    -0.0 +j      0.0        0.0      -0.0000

ELEMENT = "Line.L37"
36       1         0.0 +j     -0.0        0.0      -0.0000
   TERMINAL TOTAL     0.0 +j     -0.0        0.0      -0.0000
37       1        -0.0 +j     -0.0        0.0       0.0000
   TERMINAL TOTAL    -0.0 +j     -0.0        0.0       0.0000

ELEMENT = "Line.L38"
36       2         0.0 +j     -0.0        0.0      -0.0000
   TERMINAL TOTAL     0.0 +j     -0.0        0.0      -0.0000
38       2        -0.0 +j      0.0        0.0      -0.0000
   TERMINAL TOTAL    -0.0 +j      0.0        0.0      -0.0000

ELEMENT = "Line.L39"
38       2         0.0 +j     -0.0        0.0      -0.0000
   TERMINAL TOTAL     0.0 +j     -0.0        0.0      -0.0000
39       2        -0.0 +j     -0.0        0.0       0.0000
   TERMINAL TOTAL    -0.0 +j     -0.0        0.0       0.0000

ELEMENT = "Line.L40"
40       3         0.0 +j     -0.0        0.0      -0.0000
   TERMINAL TOTAL     0.0 +j     -0.0        0.0      -0.0000
41       3        -0.0 +j     -0.0        0.0       0.0000
   TERMINAL TOTAL    -0.0 +j     -0.0        0.0       0.0000

ELEMENT = "Line.L41"
40       1        -0.0 +j     -0.0        0.0       0.0241
40       2         0.0 +j     -0.0        0.0      -0.0154
40       3         0.0 +j     -0.0        0.0      -0.0123
   TERMINAL TOTAL     0.0 +j     -0.0        0.0      -0.0000
42       1        -0.0 +j      0.0        0.0      -0.0367
42       2         0.0 +j      0.0        0.0       0.0255
42       3         0.0 +j      0.0        0.0       0.0199
   TERMINAL TOTAL    -0.0 +j      0.0        0.0      -0.0000

ELEMENT = "Line.L42"
42       2         0.0 +j     -0.0        0.0      -0.0000
   TERMINAL TOTAL     0.0 +j     -0.0        0.0      -0.0000
43       2        -0.0 +j     -0.0        0.0       0.0000
   TERMINAL TOTAL    -0.0 +j     -0.0        0.0       0.0000

ELEMENT = "Line.L43"
42       1        -0.0 +j     -0.0        0.0       0.0220
42       2         0.0 +j     -0.0        0.0      -0.0159
42       3         0.0 +j     -0.0        0.0      -0.0115
   TERMINAL TOTAL     0.0 +j     -0.0        0.0      -0.0000
44       1        -0.0 +j      0.0        0.0      -0.0319
44       2         0.0 +j      0.0        0.0       0.0271
44       3         0.0 +j      0.0        0.0       0.0179
   TERMINAL TOTAL    -0.0 +j      0.0        0.0      -0.0000

ELEMENT = "Line.L44"
44       1         0.0 +j     -0.0        0.0      -0.0000
   TERMINAL TOTAL     0.0 +j     -0.0        0.0      -0.0000
45       1        -0.0 +j      0.0        0.0      -0.0000
   TERMINAL TOTAL    -0.0 +j      0.0        0.0      -0.0000

ELEMENT = "Line.L45"
44       1        -0.0 +j     -0.0        0.0       0.0371
44       2         0.0 +j     -0.0        0.0      -0.0214
44       3         0.0 +j     -0.0        0.0      -0.0156
   TERMINAL TOTAL     0.0 +j     -0.0        0.0      -0.0000
47       1        -0.0 +j      0.0        0.0      -0.0779
47       2         0.0 +j      0.0        0.0       0.0480
47       3         0.0 +j      0.0        0.0       0.0306
   TERMINAL TOTAL    -0.0 +j      0.0        0.0      -0.0000

ELEMENT = "Line.L46"
45       1         0.0 +j     -0.0        0.0      -0.0000
   TERMINAL TOTAL     0.0 +j     -0.0        0.0      -0.0000
46       1        -0.0 +j     -0.0        0.0       0.0000
   TERMINAL TOTAL    -0.0 +j     -0.0        0.0       0.0000

ELEMENT = "Line.L47"
47       1         0.0 +j     -0.0        0.0      -0.1948
47       2        -0.0 +j     -0.0        0.0       0.2695
47       3         0.0 +j     -0.0        0.0      -0.0987
   TERMINAL TOTAL     0.0 +j     -0.0        0.0      -0.0000
48       1         0.0 +j     -0.0        0.0      -0.5901
48       2        -0.0 +j     -0.0        0.0       0.6115
48       3         0.0 +j     -0.0        0.0      -0.2392
   TERMINAL TOTAL    -0.0 +j     -0.0        0.0       0.0000

ELEMENT = "Line.L48"
47       1         0.0 +j     -0.0        0.0      -0.0914
47       2        -0.0 +j     -0.0        0.0       0.1372
47       3         0.0 +j     -0.0        0.0      -0.0507
   TERMINAL TOTAL     0.0 +j     -0.0        0.0      -0.0000
49       1         0.0 +j      0.0        0.0       0.2170
49       2        -0.0 +j      0.0        0.0      -0.3912
49       3         0.0 +j      0.0        0.0       0.1764
   TERMINAL TOTAL    -0.0 +j      0.0        0.0      -0.0000

ELEMENT = "Line.L49"
49       1         0.0 +j     -0.0        0.0      -0.1142
49       2        -0.0 +j     -0.0        0.0       0.1684
49       3         0.0 +j     -0.0        0.0      -0.0620
   TERMINAL TOTAL     0.0 +j     -0.0        0.0      -0.0000
50       1         0.0 +j      0.0        0.0       0.3990
50       2        -0.0 +j      0.0        0.0      -0.7124
50       3         0.0 +j      0.0        0.0       0.4536
   TERMINAL TOTAL    -0.0 +j      0.0        0.0      -0.0000

ELEMENT = "Line.L50"
50       1         0.0 +j     -0.0        0.0      -0.1520
50       2        -0.0 +j     -0.0        0.0       0.2176
50       3         0.0 +j     -0.0        0.0      -0.0798
   TERMINAL TOTAL     0.0 +j     -0.0        0.0      -0.0000
51       1         0.0 +j      0.0        0.0       0.9952
51       2        -0.0 +j     -0.0        0.0       0.9340
51       3         0.0 +j     -0.0        0.0      -0.5185
   TERMINAL TOTAL    -0.0 +j     -0.0        0.0       0.0000

ELEMENT = "Line.L51"
51       1         0.0 +j     -0.0        0.0      -0.2576
51       2        -0.0 +j     -0.0        0.0       0.3390
51       3         0.0 +j     -0.0        0.0      -0.1244
   TERMINAL TOTAL    -0.0 +j     -0.0        0.0       0.0000
151      1         0.0 +j     -0.0        0.0      -0.3529
151      2        -0.0 +j     -0.0        0.0       0.4313
151      3         0.0 +j     -0.0        0.0      -0.1601
   TERMINAL TOTAL    -0.0 +j     -0.0        0.0       0.0000

ELEMENT = "Line.L52"
52       1        -0.0 +j     -0.0        0.0       0.0041
52       2         0.0 +j     -0.0        0.0      -0.0027
52       3         0.0 +j     -0.0        0.0      -0.0018
   TERMINAL TOTAL     0.0 +j     -0.1        0.1      -0.0000
53       1        -0.0 +j      0.0        0.0      -0.0044
53       2         0.0 +j      0.0        0.0       0.0029
53       3         0.0 +j      0.0        0.0       0.0019
   TERMINAL TOTAL    -0.0 +j      0.1        0.1      -0.0000

ELEMENT = "Line.L53"
53       1        -0.0 +j     -0.0        0.0       0.0026
53       2         0.0 +j     -0.0        0.0      -0.0018
53       3         0.0 +j     -0.0        0.0      -0.0012
   TERMINAL TOTAL     0.0 +j     -0.1        0.1      -0.0000
54       1        -0.0 +j      0.0        0.0      -0.0027
54       2         0.0 +j      0.0        0.0       0.0018
54       3         0.0 +j      0.0        0.0       0.0012
   TERMINAL TOTAL    -0.0 +j      0.1        0.1      -0.0000

ELEMENT = "Line.L54"
54       1        -0.0 +j     -0.0        0.0       0.0831
54       2         0.0 +j     -0.0        0.0      -0.0469
54       3         0.0 +j     -0.0        0.0      -0.0361
   TERMINAL TOTAL     0.0 +j     -0.0        0.0      -0.0000
55       1        -0.0 +j     -0.0        0.0       0.4230
55       2         0.0 +j     -0.0        0.0      -0.2138
55       3         0.0 +j     -0.0        0.0      -0.2616
   TERMINAL TOTAL    -0.0 +j     -0.0        0.0       0.0000

ELEMENT = "Line.L55"
54       1         0.0 +j     -0.0        0.0      -0.0031
54       2        -0.0 +j     -0.0        0.0       0.0086
54       3         0.0 +j     -0.0        0.0      -0.0047
   TERMINAL TOTAL     0.0 +j     -0.1        0.1      -0.0000
57       1         0.0 +j      0.0        0.0       0.0035
57       2        -0.0 +j      0.0        0.0      -0.0098
57       3         0.0 +j      0.0        0.0       0.0054
   TERMINAL TOTAL    -0.0 +j      0.1        0.1      -0.0000

ELEMENT = "Line.L56"
55       1        -0.0 +j     -0.0        0.0       0.1140
55       2         0.0 +j     -0.0        0.0      -0.0634
55       3         0.0 +j     -0.0        0.0      -0.0508
   TERMINAL TOTAL     0.0 +j     -0.0        0.0      -0.0000
56       1        -0.0 +j     -0.0        0.0       0.1812
56       2         0.0 +j     -0.0        0.0      -0.0981
56       3         0.0 +j     -0.0        0.0      -0.0853
   TERMINAL TOTAL    -0.0 +j     -0.0        0.0       0.0000

ELEMENT = "Line.L57"
57       2         0.0 +j     -0.0        0.0      -0.0000
   TERMINAL TOTAL     0.0 +j     -0.0        0.0      -0.0000
58       2        -0.0 +j      0.0        0.0      -0.0000
   TERMINAL TOTAL    -0.0 +j      0.0        0.0      -0.0000

ELEMENT = "Line.L58"
57       1         0.0 +j     -0.0        0.0      -0.0065
57       2        -0.0 +j     -0.0        0.0       0.0183
57       3         0.0 +j     -0.0        0.0      -0.0096
   TERMINAL TOTAL     0.0 +j     -0.1        0.1      -0.0000
60       1         0.0 +j      0.0        0.0       0.0081
60       2        -0.0 +j      0.0        0.0      -0.0247
60       3         0.0 +j      0.0        0.0       0.0128
   TERMINAL TOTAL    -0.0 +j      0.1        0.1      -0.0000

ELEMENT = "Line.L59"
58       2         0.0 +j     -0.0        0.0      -0.0000
   TERMINAL TOTAL     0.0 +j     -0.0        0.0      -0.0000
59       2        -0.0 +j     -0.0        0.0       0.0000
   TERMINAL TOTAL    -0.0 +j     -0.0        0.0       0.0000

ELEMENT = "Line.L60"
60       1        -0.0 +j     -0.0        0.0       0.0590
60       2         0.0 +j     -0.0        0.0      -0.1056
60       3        -0.0 +j     -0.0        0.0       0.0467
   TERMINAL TOTAL     0.0 +j     -0.0        0.0      -0.0000
61       1        -0.0 +j     -0.0        0.0       0.1111
61       2         0.0 +j     -0.0        0.0      -0.2073
61       3        -0.0 +j     -0.0        0.0       0.0999
   TERMINAL TOTAL     0.0 +j     -0.0        0.0      -0.0000

ELEMENT = "Line.L61"
60       1         0.0 +j     -0.0        0.0      -0.0000
60       2         0.0 +j     -0.0        0.0      -0.0000
60       3         0.0 +j     -0.0        0.0      -0.0000
   TERMINAL TOTAL     0.0 +j     -0.0        0.0      -0.0000
62       1        -0.0 +j     -0.0        0.0       0.0000
62       2        -0.0 +j     -0.0        0.0       0.0000
62       3        -0.0 +j     -0.0        0.0       0.0000
   TERMINAL TOTAL    -0.0 +j     -0.0        0.0       0.0000

ELEMENT = "Line.L62"
62       1         0.0 +j     -0.0        0.0      -0.0000
62       2         0.0 +j     -0.0        0.0      -0.0000
62       3         0.0 +j     -0.0        0.0      -0.0000
   TERMINAL TOTAL     0.0 +j     -0.0        0.0      -0.0000
63       1        -0.0 +j     -0.0        0.0       0.0000
63       2        -0.0 +j     -0.0        0.0       0.0000
63       3        -0.0 +j     -0.0        0.0       0.0000
   TERMINAL TOTAL    -0.0 +j     -0.0        0.0       0.0000

ELEMENT = "Line.L63"
63       1         0.0 +j     -0.0        0.0      -0.0000
63       2         0.0 +j     -0.0        0.0      -0.0000
63       3         0.0 +j     -0.0        0.0      -0.0000
   TERMINAL TOTAL     0.0 +j     -0.0        0.0      -0.0000
64       1        -0.0 +j     -0.0        0.0       0.0000
64       2        -0.0 +j     -0.0        0.0       0.0000
64       3        -0.0 +j     -0.0        0.0       0.0000
   TERMINAL TOTAL    -0.0 +j     -0.0        0.0       0.0000

ELEMENT = "Line.L64"
64       1         0.0 +j     -0.0        0.0      -0.0000
64       2         0.0 +j     -0.0        0.0      -0.0000
64       3         0.0 +j     -0.0        0.0      -0.0000
   TERMINAL TOTAL     0.0 +j     -0.0        0.0      -0.0000
65       1        -0.0 +j     -0.0        0.0       0.0000
65       2        -0.0 +j     -0.0        0.0       0.0000
65       3        -0.0 +j     -0.0        0.0       0.0000
   TERMINAL TOTAL    -0.0 +j     -0.0        0.0       0.0000

ELEMENT = "Line.L65"
65       1         0.0 +j     -0.0        0.0      -0.0000
65       2        -0.0 +j     -0.0        0.0       0.0000
65       3         0.0 +j     -0.0        0.0      -0.0000
   TERMINAL TOTAL     0.0 +j     -0.0        0.0      -0.0000
66       1        -0.0 +j     -0.0        0.0       0.0000
66       2         0.0 +j     -0.0        0.0      -0.0000
66       3        -0.0 +j     -0.0        0.0       0.0000
   TERMINAL TOTAL    -0.0 +j     -0.0        0.0       0.0000

ELEMENT = "Line.L66"
67       1         0.0 +j     -0.0        0.0      -0.0000
   TERMINAL TOTAL     0.0 +j     -0.0        0.0      -0.0000
68       1        -0.0 +j      0.0        0.0      -0.0000
   TERMINAL TOTAL    -0.0 +j      0.0        0.0      -0.0000

ELEMENT = "Line.L67"
67       1         0.0 +j     -0.0        0.0      -0.0068
67       2        -0.0 +j     -0.0        0.0       0.0163
67       3         0.0 +j     -0.0        0.0      -0.0079
   TERMINAL TOTAL     0.0 +j     -0.0        0.0      -0.0000
72       1         0.0 +j      0.0        0.0       0.0086
72       2        -0.0 +j      0.0        0.0      -0.0212
72       3         0.0 +j      0.0        0.0       0.0099
   TERMINAL TOTAL    -0.0 +j      0.0        0.0      -0.0000

ELEMENT = "Line.L68"
67       1         0.0 +j     -0.0        0.0      -0.0066
67       2        -0.0 +j     -0.0        0.0       0.0206
67       3         0.0 +j     -0.0        0.0      -0.0112
   TERMINAL TOTAL     0.0 +j     -0.0        0.0      -0.0000
97       1         0.0 +j      0.0        0.0       0.0083
97       2        -0.0 +j      0.0        0.0      -0.0290
97       3         0.0 +j      0.0        0.0       0.0157
   TERMINAL TOTAL    -0.0 +j      0.0        0.0      -0.0000

ELEMENT = "Line.L69"
68       1         0.0 +j     -0.0        0.0      -0.0000
   TERMINAL TOTAL     0.0 +j     -0.0        0.0      -0.0000
69       1        -0.0 +j      0.0        0.0      -0.0000
   TERMINAL TOTAL    -0.0 +j      0.0        0.0      -0.0000

ELEMENT = "Line.L70"
69       1         0.0 +j     -0.0        0.0      -0.0000
   TERMINAL TOTAL     0.0 +j     -0.0        0.0      -0.0000
70       1        -0.0 +j     -0.0        0.0       0.0001
   TERMINAL TOTAL    -0.0 +j     -0.0        0.0       0.0001

ELEMENT = "Line.L71"
70       1         0.0 +j     -0.0        0.0      -0.0000
   TERMINAL TOTAL     0.0 +j     -0.0        0.0      -0.0000
71       1        -0.0 +j     -0.0        0.0       0.0000
   TERMINAL TOTAL    -0.0 +j     -0.0        0.0       0.0000

ELEMENT = "Line.L72"
72       3         0.0 +j     -0.0        0.0      -0.0000
   TERMINAL TOTAL     0.0 +j     -0.0        0.0      -0.0000
73       3        -0.0 +j      0.0        0.0      -0.0000
   TERMINAL TOTAL    -0.0 +j      0.0        0.0      -0.0000

ELEMENT = "Line.L73"
72       1         0.0 +j     -0.0        0.0      -0.0054
72       2        -0.0 +j     -0.0        0.0       0.0130
72       3         0.0 +j     -0.0        0.0      -0.0072
   TERMINAL TOTAL     0.0 +j     -0.0        0.0      -0.0000
76       1         0.0 +j      0.0        0.0       0.0065
76       2        -0.0 +j      0.0        0.0      -0.0159
76       3         0.0 +j      0.0        0.0       0.0088
   TERMINAL TOTAL    -0.0 +j      0.0        0.0      -0.0000

ELEMENT = "Line.L74"
73       3         0.0 +j     -0.0        0.0      -0.0000
   TERMINAL TOTAL     0.0 +j     -0.0        0.0      -0.0000
74       3        -0.0 +j     -0.0        0.0       0.0001
   TERMINAL TOTAL    -0.0 +j     -0.0        0.0       0.0001

ELEMENT = "Line.L75"
...